Version 4
SHEET 1 1208 680
WIRE -208 -48 -208 -64
WIRE -96 -48 -96 -64
WIRE -208 48 -208 32
WIRE -96 48 -96 32
WIRE 560 160 544 160
WIRE 656 160 640 160
WIRE 816 160 656 160
WIRE 960 160 896 160
WIRE -96 176 -112 176
WIRE 0 176 -16 176
WIRE 144 176 0 176
WIRE 288 176 224 176
WIRE 736 272 736 256
WIRE 80 288 80 272
WIRE 656 288 656 160
WIRE 704 288 656 288
WIRE 0 304 0 176
WIRE 48 304 0 304
WIRE 960 304 960 160
WIRE 960 304 768 304
WIRE 1152 304 960 304
WIRE 1168 304 1152 304
WIRE 288 320 288 176
WIRE 288 320 112 320
WIRE 704 320 288 320
WIRE -64 336 -96 336
WIRE 48 336 -64 336
WIRE -96 352 -96 336
WIRE 736 352 736 336
WIRE 80 368 80 352
WIRE -96 448 -96 432
FLAG -208 48 0
FLAG -208 -64 Vcc
FLAG 80 368 0
FLAG 80 272 Vcc
FLAG -96 448 0
FLAG -96 48 0
FLAG -96 -64 Vref
FLAG -112 176 Vref
FLAG -64 336 Input
FLAG 736 352 0
FLAG 736 256 Vcc
FLAG 544 160 Vref
FLAG 1152 304 Output
SYMBOL voltage -208 -64 R0
WINDOW 123 0 0 Left 0
WINDOW 39 0 0 Left 0
SYMATTR InstName V1
SYMATTR Value 5
SYMBOL OpAmps\\AD8032 80 256 R0
SYMATTR InstName U1
SYMBOL voltage -96 336 R0
WINDOW 123 24 124 Left 2
WINDOW 39 0 0 Left 0
SYMATTR InstName V2
SYMATTR Value SINE(2.5 10m 10k)
SYMATTR Value2 AC 1
SYMBOL res 0 160 R90
WINDOW 0 0 56 VBottom 2
WINDOW 3 32 56 VTop 2
SYMATTR InstName R2
SYMATTR Value 300
SYMBOL voltage -96 -64 R0
WINDOW 123 0 0 Left 0
WINDOW 39 0 0 Left 0
SYMATTR InstName V3
SYMATTR Value 2.5
SYMBOL OpAmps\\AD8032 736 240 R0
SYMATTR InstName U2
SYMBOL res 656 144 R90
WINDOW 0 0 56 VBottom 2
WINDOW 3 32 56 VTop 2
SYMATTR InstName R4
SYMATTR Value 300
SYMBOL res 240 160 R90
WINDOW 0 0 56 VBottom 2
WINDOW 3 32 56 VTop 2
SYMATTR InstName R5
SYMATTR Value 10k
SYMBOL res 912 144 R90
WINDOW 0 0 56 VBottom 2
WINDOW 3 32 56 VTop 2
SYMATTR InstName R6
SYMATTR Value 10k
TEXT -242 480 Left 2 !.ac dec 100 1 100k
TEXT 136 104 Left 2 ;10k Pot
TEXT 808 104 Left 2 ;10k Pot
TEXT 144 -88 Left 2 ;G = 1 ... 34 per Stage\nG = 1 ...  ~1150 overall
